73
Lattice="8.956369831609006 0.0 0.0 0.0 8.956369831609006 0.0 0.0 0.0 8.956369831609006" Properties=species:S:1:pos:R:3:momenta:R:3 water=T with=T unit=T cell:=T ABC=T angstrom=T 12.42=T pbc="T T T"
O        3.08797109       5.34829591       3.01980248      -0.17850456      -0.67952694      -0.46826372
O        3.03987733       9.51667279       3.22580100       0.59846802       0.69960453      -0.04080864
O        0.68938206       5.22044792       0.76287597      -0.41637461      -0.25459849       0.24041649
O        3.84902878       2.83869938       2.54956734      -0.42163643      -0.29846414      -1.45788029
O        6.44353348       2.82726465       3.09116541      -0.18005123      -0.07825566       0.15204149
O        4.07683858       5.85412460       5.32471006       0.24468572       0.58862702       1.22992686
O        1.78969249       8.71238896       5.36136369       0.47420611       1.33725272      -0.29359506
O        6.12353714       7.78114776       1.95722393      -0.50006173       0.45451433       0.27945191
O        6.23459865       1.24115532       9.96314857       0.85838437       0.12325537      -1.29934961
O        2.24174031       6.77624298       7.32120293       0.71098753      -0.47790616      -0.26750114
O        1.70490456       9.51354509       0.73192028       0.11314903      -0.53546306       0.65495335
O        1.34890341       3.98654609       5.83048014       0.76419867       0.50529925      -0.58569553
O        4.76058431       2.96385464      -0.30694956       0.76271715      -1.41900416       0.16411759
O        1.07714765       6.47513680       4.48938155      -0.96893650      -0.03247451       0.06415407
O        2.04328043       3.13234562      -0.34481286       0.72190235       0.51909596       0.02645245
O        5.03229848       8.19378901       4.66085487      -0.42589326       0.37636032      -0.35254428
O       -0.75462575       0.43671704      -0.26303978      -0.66085848      -0.09348855       1.15928731
O        5.99497618       4.84529424       7.67325431       0.42055037      -0.21611149      -0.55021465
O        3.90733231       2.33728344       6.29302540      -0.29270680      -0.02339436      -0.01755939
O       -0.06246949      10.46630672       6.23668413       0.13241853      -1.05349596      -0.22862477
O       -0.57701150       5.96140278      -1.28898334      -0.30382127       0.23329099      -1.07757486
O        3.58298620       7.18267497       1.03170374      -0.14355392       0.45367596      -0.29812712
O        8.01139983       5.82909937       2.53625049      -0.75732231      -0.24799200       0.02909717
O       -2.62441172      10.30200338       5.33278453       0.21961145       0.63205944      -0.38944133
H        2.17753800       5.63542929       3.38566054      -0.05177295       0.32765765       0.19051026
H        3.08129837       4.41599153       2.74170111       0.03839272       0.01967646      -0.06742203
H        3.44894133      10.39007984       3.00649231      -0.07358760      -0.03571781       0.08728256
H        2.53971852       9.26441977       2.43844740      -0.06947586       0.19936320      -0.04178791
H        0.87263380       4.32592077       0.41817733      -0.38070881      -0.04226270      -0.08933456
H        0.05331153       5.23586794       1.57393451       0.49437234      -0.13037705       0.38743580
H        4.21597411       2.91098898       1.63386425      -0.07382225       0.03026908      -0.17837327
H        4.78670906       2.86670259       2.98170488       0.35658510      -0.07350196      -0.02573039
H        6.49462957       2.27302356       2.22917944       0.01628126      -0.04321123       0.05357553
H        6.52471790       2.14713448       3.84317431      -0.05629803       0.21110829       0.23896806
H        3.73088958       5.46675718       4.41548001      -0.15606434       0.15647782       0.19242540
H        3.35542137       6.09453737       6.03822895      -0.07385083      -0.02863655       0.17390030
H        2.24102904       9.26391713       4.59917004       0.09349639      -0.20070583       0.14066992
H        1.09714169       9.32471644       5.79288879      -0.37892494       0.11881086      -0.32185145
H        5.89051956       7.63095189       2.90872222       0.06584377      -0.19285320       0.03653154
H        5.27462403       7.45007250       1.50208690      -0.05764111      -0.18238257      -0.21091596
H        7.03985799       0.75493919       9.40328599      -0.02054487       0.02517823       0.11023765
H        5.77915543       0.49926633      10.39626792       0.00014892       0.21359396       0.16728219
H        2.13645076       7.53198439       6.64508468      -0.08617909       0.00120708      -0.06474542
H        1.35414219       6.33236255       7.19038036      -0.00980333      -0.29652817      -0.00291138
H        1.82573200      10.36878513       0.18985392       0.47564881       0.13210265      -0.07403845
H        1.86203299       8.70073118       0.21248499      -0.09414022       0.05027269       0.08433191
H        2.25113212       3.59015223       5.58069016       0.19015977      -0.17501110      -0.17042441
H        1.21488158       4.84521845       5.26525767       0.07487613      -0.01349526      -0.16515106
H        5.42688659       3.73907065      -0.62775341       0.07448998       0.34454729      -0.00915358
H        5.42889907       2.24075076      -0.02537727       0.17788192      -0.04370628       0.13571468
H        1.30072957       7.43827109       4.84013556      -0.17821608       0.22772917      -0.07872097
H        0.14763896       6.37935927       3.98093907      -0.08132180       0.08950154      -0.17692137
H        2.10682472       3.43647179      -1.30912715       0.34888344      -0.07370572       0.13983356
H        2.88440423       3.46399458       0.09944376       0.11782429       0.49369271       0.01669870
H        4.53666380       7.22891231       4.84609518       0.14053439       0.09982083      -0.16669822
H        4.39604036       8.61110624       3.99637509      -0.07817496      -0.17605188       0.12574205
H        0.08579263       0.70160463       0.18220771      -0.00580087       0.07582387       0.03147565
H       -0.48589161       0.77073789      -1.16126382      -0.17701873      -0.43701872      -0.15709440
H        5.42408084       5.27150448       6.98700866       0.02030111      -0.15692682       0.26289474
H        7.00860104       4.99177281       7.46376828       0.02091692       0.09893758       0.00499951
H        4.20764997       2.60394717       7.24503498      -0.00995205      -0.04247443      -0.03873700
H        3.57532601       1.36845137       6.34486350       0.14083676      -0.07743415       0.18527525
H       -1.03095327      10.37181706       5.98296903       0.01736597      -0.09794959      -0.36259890
H        0.10993036      11.41274275       6.00410350      -0.29066808      -0.02916834      -0.38781227
H       -0.06194144       5.73888170      -0.37824590      -0.14466290       0.38287127      -0.14575120
H       -0.95069935       6.85181307      -1.09614586      -0.18099930       0.15531471       0.34709355
H        3.24386249       6.88070154       0.13428932       0.15377185       0.18204546      -0.04837828
H        3.20375872       6.50911634       1.68669613      -0.00520015      -0.01185177       0.01952083
H        7.44566895       5.07157165       2.83325609      -0.01322051      -0.04222321      -0.09704284
H        7.24393957       6.42993804       2.24014478      -0.08898483       0.01243563       0.01101896
H       -3.37857523      10.85280179       5.73392086      -0.15393402      -0.15924942       0.52636602
H       -3.08020723       9.39925404       5.15106041      -0.19867217       0.03211807       0.15190257
Na       4.63047116       3.73456827       4.82341235       0.00000000       0.00000000       0.00000000
